<routes>
   <vType id="car" type="passenger" length="5" accel="3.5" decel="2.2" sigma="1.0"/>

   <route id="routeLow" color="0,0,1" edges="E4 E3"/>
   <route id="routeHigh" color="1,0,0" edges="E4 E0 E1 E2"/>
</routes>