<?xml version="1.0" encoding="UTF-8"?>

<!-- generated on 2022-01-17 14:07:27 by Eclipse SUMO netedit Version 1.11.0
<configuration xmlns:xsi="http://www.w3.org/2001/XMLSchema-instance" xsi:noNamespaceSchemaLocation="http://sumo.dlr.de/xsd/netconvertConfiguration.xsd">

    <output>
        <output-file value="/home/rafa/ms/data/sumo/trap/example.net.xml"/>
    </output>

    <processing>
        <offset.disable-normalization value="true"/>
    </processing>

    <junctions>
        <no-turnarounds value="true"/>
    </junctions>

    <report>
        <aggregate-warnings value="5"/>
    </report>

</configuration>
-->

<net version="1.9" junctionCornerDetail="5" limitTurnSpeed="5.50" xmlns:xsi="http://www.w3.org/2001/XMLSchema-instance" xsi:noNamespaceSchemaLocation="http://sumo.dlr.de/xsd/net_file.xsd">

    <location netOffset="0.00,0.00" convBoundary="0.00,-20.00,250.00,0.00" origBoundary="10000000000.00,10000000000.00,-10000000000.00,-10000000000.00" projParameter="!"/>

    <edge id=":J0_0" function="internal">
        <lane id=":J0_0_0" index="0" speed="10.00" length="8.00" shape="46.00,-1.60 54.00,-1.60"/>
    </edge>
    <edge id=":J2_0" function="internal">
        <lane id=":J2_0_0" index="0" speed="10.00" length="8.00" shape="46.00,-21.60 54.00,-21.60"/>
    </edge>

    <edge id="E0" from="J0" to="J1" priority="-1">
        <lane id="E0_0" index="0" speed="15.00" length="196.00" shape="54.00,-1.60 250.00,-1.60"/>
    </edge>
    <edge id="E1" from="J2" to="J3" priority="-1">
        <lane id="E1_0" index="0" speed="15.00" length="96.00" shape="54.00,-21.60 150.00,-21.60"/>
    </edge>
    <edge id="E2" from="J4" to="J2" priority="-1">
        <lane id="E2_0" index="0" speed="5.00" length="46.00" shape="0.00,-31.20 46.00,-31.20"/>
        <lane id="E2_1" index="1" speed="5.00" length="46.00" shape="0.00,-28.00 46.00,-28.00"/>
        <lane id="E2_2" index="2" speed="5.00" length="46.00" shape="0.00,-24.80 46.00,-24.80"/>
        <lane id="E2_3" index="3" speed="5.00" length="46.00" shape="0.00,-21.60 46.00,-21.60"/>
    </edge>
    <edge id="E3" from="J6" to="J0" priority="-1">
        <lane id="E3_0" index="0" speed="5.00" length="46.00" shape="0.00,-11.20 46.00,-11.20"/>
        <lane id="E3_1" index="1" speed="5.00" length="46.00" shape="0.00,-8.00 46.00,-8.00"/>
        <lane id="E3_2" index="2" speed="5.00" length="46.00" shape="0.00,-4.80 46.00,-4.80"/>
        <lane id="E3_3" index="3" speed="5.00" length="46.00" shape="0.00,-1.60 46.00,-1.60"/>
    </edge>

    <junction id="J0" type="priority" x="50.00" y="0.00" incLanes="E3_0 E3_1 E3_2 E3_3" intLanes=":J0_0_0" shape="54.00,0.00 54.00,-3.20 51.67,-3.91 50.54,-5.69 49.46,-10.31 48.33,-12.09 46.00,-12.80 46.00,0.00">
        <request index="0" response="0" foes="0" cont="0"/>
    </junction>
    <junction id="J1" type="dead_end" x="250.00" y="0.00" incLanes="E0_0" intLanes="" shape="250.00,-3.20 250.00,0.00"/>
    <junction id="J2" type="priority" x="50.00" y="-20.00" incLanes="E2_0 E2_1 E2_2 E2_3" intLanes=":J2_0_0" shape="54.00,-20.00 54.00,-23.20 51.67,-23.91 50.54,-25.69 49.46,-30.31 48.33,-32.09 46.00,-32.80 46.00,-20.00">
        <request index="0" response="0" foes="0" cont="0"/>
    </junction>
    <junction id="J3" type="dead_end" x="150.00" y="-20.00" incLanes="E1_0" intLanes="" shape="150.00,-23.20 150.00,-20.00"/>
    <junction id="J4" type="dead_end" x="0.00" y="-20.00" incLanes="" intLanes="" shape="0.00,-20.00 0.00,-32.80"/>
    <junction id="J6" type="dead_end" x="0.00" y="0.00" incLanes="" intLanes="" shape="0.00,0.00 0.00,-12.80"/>

    <connection from="E2" to="E1" fromLane="3" toLane="0" via=":J2_0_0" dir="s" state="M"/>
    <connection from="E3" to="E0" fromLane="3" toLane="0" via=":J0_0_0" dir="s" state="M"/>

    <connection from=":J0_0" to="E0" fromLane="0" toLane="0" dir="s" state="M"/>
    <connection from=":J2_0" to="E1" fromLane="0" toLane="0" dir="s" state="M"/>

</net>
