<routes>
   <vType id="car" type="passenger" length="5" accel="3.5" decel="2.2" sigma="1.0"/>

   <route id="routeShort" color="0,0,1" edges="E2 E1"/>
   <route id="routeLong" color="1,0,0" edges="E3 E0"/>
</routes>